new LoadShape.75ed270d-6b89-4961-9e46-51dcc690c2b9 NPts=5 Hour=[0.0, 48.0, 744.0, 792.0, 1440.0] UseActual=True PMult=[0.0, 0.5, 1.0, 0.5, 0.0]
new LoadShape.4055c78a-1deb-4ceb-818c-bbbba0d2109d NPts=5 Hour=[0.0, 48.0, 744.0, 792.0, 1440.0] UseActual=True PMult=[1.0, 2.0, 3.0, 4.0, 5.0]
