new LineCode.DEFAULT_3 NPhases=3 Units=km RMatrix=(0.0 0.0 0.0 |0.0 0.0 0.0 |0.0 0.0 0.0 ) XMatrix=(6.21371192237334e-05 0.0 0.0 |0.0 6.21371192237334e-05 0.0 |0.0 0.0 6.21371192237334e-05 ) CMatrix=(0.0 0.0 0.0 |0.0 0.0 0.0 |0.0 0.0 0.0 ) NormAmps=900.0
